@<TRIPOS>MOLECULE
UNL
   35    37     1     0     0
SMALL
bcc


@<TRIPOS>ATOM
      1 CL1          6.5490     0.7670     0.6980 cl         1 UNL      -0.089400
      2 C1           5.3280     0.2450    -0.4230 ca         1 UNL       0.017400
      3 C2           5.5370     0.1910    -1.7930 ca         1 UNL      -0.118000
      4 C3           4.5590    -0.2260    -2.6610 ca         1 UNL      -0.116000
      5 C4           3.3340    -0.6010    -2.1430 ca         1 UNL      -0.114000
      6 C5           3.0830    -0.5630    -0.7870 ca         1 UNL      -0.086300
      7 C6           1.7570    -0.9780    -0.2970 c3         1 UNL      -0.115100
      8 C7           0.7780     0.1520    -0.2740 c          1 UNL       0.667100
      9 O1           1.2160     1.2490    -0.6750 o          1 UNL      -0.586100
     10 N1          -0.5340    -0.0700     0.1800 n          1 UNL      -0.460100
     11 C8          -1.5620     0.8860     0.2580 ca         1 UNL      -0.041700
     12 C9          -1.4910     2.1850    -0.1880 ca         1 UNL       0.374200
     13 N2          -2.5580     3.0370    -0.0930 nb         1 UNL      -0.644000
     14 C10         -3.7360     2.6730     0.4350 ca         1 UNL       0.364200
     15 C11         -3.8640     1.3790     0.8990 ca         1 UNL      -0.215300
     16 C12         -2.7880     0.4980     0.8100 ca         1 UNL      -0.071300
     17 C13         -2.9550    -0.8560     1.3360 cx         1 UNL      -0.101400
     18 C14         -4.2810    -1.3810     1.7430 cx         1 UNL      -0.125900
     19 C15         -3.6700    -1.8330     0.4160 cx         1 UNL      -0.125900
     20 C16          4.0860    -0.1380     0.0800 ca         1 UNL      -0.134000
     21 H1           6.5200     0.4970    -2.1620 ha         1 UNL       0.152000
     22 H2           4.7160    -0.2700    -3.7250 ha         1 UNL       0.144000
     23 H3           2.5450    -0.9360    -2.8200 ha         1 UNL       0.147000
     24 H4           1.9010    -1.3400     0.7590 hc         1 UNL       0.087700
     25 H5           1.4090    -1.8280    -0.9070 hc         1 UNL       0.087700
     26 H6          -0.7500    -1.0650     0.4800 hn         1 UNL       0.329500
     27 H7          -0.5670     2.5320    -0.6240 h4         1 UNL       0.061100
     28 H8          -4.5520     3.3790     0.4900 h4         1 UNL       0.023100
     29 H9          -4.8220     1.0980     1.3250 ha         1 UNL       0.145000
     30 H10         -2.0810    -1.2670     1.8870 hc         1 UNL       0.092700
     31 H11         -4.2710    -2.2110     2.4910 hc         1 UNL       0.075950
     32 H12         -5.2070    -0.8220     1.7540 hc         1 UNL       0.075950
     33 H13         -3.2910    -2.8500     0.3040 hc         1 UNL       0.075950
     34 H14         -4.2290    -1.4270    -0.4510 hc         1 UNL       0.075950
     35 H15          3.8940    -0.1070     1.1470 ha         1 UNL       0.146000
@<TRIPOS>BOND
     1     1     2 1   
     2     2     3 ar  
     3     2    20 ar  
     4     3     4 ar  
     5     3    21 1   
     6     4     5 ar  
     7     4    22 1   
     8     5     6 ar  
     9     5    23 1   
    10     6     7 1   
    11     6    20 ar  
    12     7     8 1   
    13     7    24 1   
    14     7    25 1   
    15     8     9 2   
    16     8    10 1   
    17    10    11 1   
    18    10    26 1   
    19    11    12 ar  
    20    11    16 ar  
    21    12    13 ar  
    22    12    27 1   
    23    13    14 ar  
    24    14    15 ar  
    25    14    28 1   
    26    15    16 ar  
    27    15    29 1   
    28    16    17 1   
    29    17    18 1   
    30    17    19 1   
    31    17    30 1   
    32    18    19 1   
    33    18    31 1   
    34    18    32 1   
    35    19    33 1   
    36    19    34 1   
    37    20    35 1   
@<TRIPOS>SUBSTRUCTURE
     1 UNL         1 TEMP              0 ****  ****    0 ROOT
