@<TRIPOS>MOLECULE
UNL
   33    34     1     0     0
SMALL
bcc


@<TRIPOS>ATOM
      1 C1          -3.3450    -0.3850     1.7450 c3         1 UNL      -0.047800
      2 C2          -3.1340    -0.1450     0.2830 ca         1 UNL      -0.150300
      3 C3          -4.2170    -0.0360    -0.5530 ca         1 UNL       0.044300
      4 N1          -5.5260    -0.1500    -0.0320 nh         1 UNL      -0.811200
      5 C4          -4.0990     0.1840    -1.9040 ca         1 UNL       0.315200
      6 N2          -2.8610     0.2920    -2.3970 nb         1 UNL      -0.618000
      7 C5          -1.7610     0.1940    -1.6240 ca         1 UNL       0.338200
      8 C6          -1.8620    -0.0270    -0.2690 ca         1 UNL      -0.010700
      9 N3          -0.7360    -0.1360     0.5770 n          1 UNL      -0.468100
     10 C7           0.6220    -0.0480     0.2270 c          1 UNL       0.668100
     11 O1           1.0210     0.1450    -0.9220 o          1 UNL      -0.584100
     12 C8           1.6640    -0.1940     1.2840 c3         1 UNL      -0.116100
     13 C9           3.0230    -0.0770     0.7520 ca         1 UNL      -0.087300
     14 C10          3.7750    -1.1260     0.2890 ca         1 UNL      -0.114000
     15 C11          5.0600    -0.9290    -0.2020 ca         1 UNL      -0.115000
     16 C12          5.6020     0.3310    -0.2310 ca         1 UNL      -0.118000
     17 C13          4.8670     1.3990     0.2280 ca         1 UNL       0.019400
     18 CL1          5.5960     2.9880     0.1720 cl         1 UNL      -0.089400
     19 C14          3.6010     1.1940     0.7090 ca         1 UNL      -0.135000
     20 H1          -2.7380    -1.2400     2.1040 hc         1 UNL       0.042367
     21 H2          -4.3940    -0.6460     1.9120 hc         1 UNL       0.042367
     22 H3          -3.1310     0.5280     2.3410 hc         1 UNL       0.042367
     23 H4          -5.9730     0.6670     0.3980 hn         1 UNL       0.391800
     24 H5          -6.0190    -1.0490    -0.0880 hn         1 UNL       0.391800
     25 H6          -4.9770     0.2640    -2.5290 h4         1 UNL       0.021100
     26 H7          -0.7860     0.2970    -2.1260 h4         1 UNL       0.057100
     27 H8          -0.9910    -0.3090     1.6180 hn         1 UNL       0.325500
     28 H9           1.5380     0.5830     2.0790 hc         1 UNL       0.087700
     29 H10          1.5540    -1.2250     1.7150 hc         1 UNL       0.087700
     30 H11          3.3530    -2.1180     0.3100 ha         1 UNL       0.146000
     31 H12          5.6460    -1.7600    -0.5640 ha         1 UNL       0.144000
     32 H13          6.6000     0.4960    -0.6100 ha         1 UNL       0.152000
     33 H14          3.0290     2.0380     1.0690 ha         1 UNL       0.146000
@<TRIPOS>BOND
     1     1     2 1   
     2     1    20 1   
     3     1    21 1   
     4     1    22 1   
     5     2     3 ar  
     6     2     8 ar  
     7     3     4 1   
     8     3     5 ar  
     9     4    23 1   
    10     4    24 1   
    11     5     6 ar  
    12     5    25 1   
    13     6     7 ar  
    14     7     8 ar  
    15     7    26 1   
    16     8     9 1   
    17     9    10 1   
    18     9    27 1   
    19    10    11 2   
    20    10    12 1   
    21    12    13 1   
    22    12    28 1   
    23    12    29 1   
    24    13    14 ar  
    25    13    19 ar  
    26    14    15 ar  
    27    14    30 1   
    28    15    16 ar  
    29    15    31 1   
    30    16    17 ar  
    31    16    32 1   
    32    17    18 1   
    33    17    19 ar  
    34    19    33 1   
@<TRIPOS>SUBSTRUCTURE
     1 UNL         1 TEMP              0 ****  ****    0 ROOT
